Distrib/IEEETestCases/ShortCircuitCases/123Bus/Simple_Curr_Seq.Txt

SYMMETRICAL COMPONENT CURRENTS BY CIRCUIT ELEMENT (first 3 phases)

Element           Term      I1         I2         %I2/I1    I0         %I0/I1   %Normal %Emergency

"VSOURCE.SOURCE"    1      5.0597   2.2943E-009     0.00  2.2737E-013     0.00      0.00     0.00
   -                2      5.0597   2.2943E-009     0.00  2.2737E-013     0.00      0.00     0.00
"TRANSFORMER.TR1"   1      5.0597   2.2942E-009     0.00  7.8413E-014     0.00      4.58     3.36
   -                2      46.661   2.1098E-008     0.00  3.0538E-009     0.00      0.00     0.00
"LINE.LINE1" ....   1      46.661   2.1098E-008     0.00  3.0536E-009     0.00     11.67     7.78
   -                2      46.677   2.1106E-008     0.00  3.0534E-009     0.00      0.00     0.00
"LOAD.LOAD1" ....   1      46.677   2.1105E-008     0.00  3.0536E-009     0.00      0.00     0.00
